%chk=A.chk
# opt mp2/6-311++g pop=nbo geom=connectivity

Title Card Required

0 1
 C                 -5.47782571   -0.83469668   -0.00063400
 C                 -4.08266571   -0.83469668   -0.00063400
 C                 -3.38512771    0.37305432   -0.00063400
 C                 -4.08278171    1.58156332   -0.00183300
 C                 -5.47760671    1.58148532   -0.00231200
 C                 -6.17520771    0.37327932   -0.00131600
 H                 -6.02758471   -1.78701368   -0.00018400
 H                 -3.53315771   -1.78720968    0.00068100
 H                 -3.53258171    2.53370632   -0.00189200
 H                 -6.02772871    2.53376632   -0.00326500
 H                 -7.27481171    0.37346232   -0.00149600
 S                 -1.60512801    0.37318381    0.00039223
 H                 -1.16712904    0.37152841   -1.23421466

 1 2 1.5 6 1.5 7 1.0
 2 3 1.5 8 1.0
 3 4 1.5 12 1.0
 4 5 1.5 9 1.0
 5 6 1.5 10 1.0
 6 11 1.0
 7
 8
 9
 10
 11
 12 13 1.0
 13

