%chk=C:\G09W\Scratch\C.chk
# opt mp2/6-311++g pop=nbo geom=connectivity

Title Card Required

0 1
 C                 -3.96069368   -0.27301832    0.00000000
 C                 -2.44558768   -0.27301832    0.00000000
 C                 -1.89365668    1.13805968    0.00000000
 C                 -2.44331968    1.94259668    1.16066100
 C                 -3.95844468    1.94325768    1.16017200
 C                 -4.51124468    0.53263668    1.15887600
 H                 -2.07303868   -0.81865232    0.90656200
 H                 -2.07029368   -0.82287732   -0.90191000
 H                 -4.33338168    0.16001068   -0.96538500
 H                 -4.33629068   -1.32723832    0.06350200
 H                 -2.07078468    1.50775168    2.12527200
 H                 -2.06729668    2.99673368    1.09866600
 H                 -4.33376468    2.49268568    2.06228600
 H                 -4.33029968    2.48985868    0.25384900
 H                 -4.24524068    0.02691468    2.12419100
 H                 -5.62979268    0.56769768    1.09393800
 H                 -2.16227468    1.64369268   -0.96454600
 S                 -0.11726498    1.08408026    0.09959300
 H                  0.39771556    1.64285342   -0.96749069

 1 2 1.0 6 1.0 10 1.0 9 1.0
 2 3 1.0 7 1.0 8 1.0
 3 4 1.0 17 1.0 18 1.0
 4 5 1.0 11 1.0 12 1.0
 5 6 1.0 13 1.0 14 1.0
 6 16 1.0 15 1.0
 7
 8
 9
 10
 11
 12
 13
 14
 15
 16
 17
 18 19 1.0
 19

